 INFO
nunit      1    1    1
unit   cell
celltype   convcell
shape   parapipedal
 END_INFO
 DIM-GROUP
           3           5
 PRIMVEC
    2.1584523922    2.1584523922    0.0000000000
    2.1584523922    0.0000000000    2.1584523922
    0.0000000000    2.1584523922    2.1584523922
 CONVVEC
    4.3169047845    0.0000000000    0.0000000000
    0.0000000000    4.3169047845    0.0000000000
    0.0000000000    0.0000000000    4.3169047845
 PRIMCOORD
           2           1
 26      0.0000000000     0.0000000000     0.0000000000
  8      0.0000000000     0.0000000000     2.1584523922
 CONVCOORD
           2           4
 26      0.0000000000     0.0000000000     0.0000000000
 26      0.0000000000     2.1584523922     2.1584523922
 26      2.1584523922     0.0000000000     2.1584523922
 26      2.1584523922     2.1584523922     0.0000000000
  8      0.0000000000     0.0000000000     2.1584523922
  8      0.0000000000     2.1584523922     4.3169047845
  8      2.1584523922     0.0000000000     4.3169047845
  8      2.1584523922     2.1584523922     2.1584523922
 RECIP-PRIMVEC
    0.2316474534    0.2316474534   -0.2316474534

    0.2316474534   -0.2316474534    0.2316474534

   -0.2316474534    0.2316474534    0.2316474534

 RECIP-CONVVEC
    0.2316474534    0.0000000000    0.0000000000

    0.0000000000    0.2316474534    0.0000000000

    0.0000000000    0.0000000000    0.2316474534

 WIGNER-SEITZ-PRIMCELL
           4
 -0.1079226E+01 -0.1079226E+01  0.1079226E+01  -0.7071068E+00 -0.7071068E+00  0.0000000E+00
 -0.2158452E+01 -0.0000000E+00 -0.0000000E+00  -0.7071068E+00 -0.7071068E+00  0.0000000E+00
 -0.1079226E+01 -0.1079226E+01 -0.1079226E+01  -0.7071068E+00 -0.7071068E+00  0.0000000E+00
  0.0000000E+00 -0.2158452E+01  0.0000000E+00  -0.7071068E+00 -0.7071068E+00  0.0000000E+00
           4
 -0.1079226E+01  0.1079226E+01  0.1079226E+01  -0.7071068E+00 -0.0000000E+00  0.7071068E+00
 -0.2158452E+01 -0.0000000E+00 -0.0000000E+00  -0.7071068E+00 -0.0000000E+00  0.7071068E+00
 -0.1079226E+01 -0.1079226E+01  0.1079226E+01  -0.7071068E+00 -0.0000000E+00  0.7071068E+00
 -0.0000000E+00 -0.0000000E+00  0.2158452E+01  -0.7071068E+00 -0.0000000E+00  0.7071068E+00
           4
 -0.2158452E+01 -0.0000000E+00 -0.0000000E+00  -0.7071068E+00  0.0000000E+00 -0.7071068E+00
 -0.1079226E+01  0.1079226E+01 -0.1079226E+01  -0.7071068E+00  0.0000000E+00 -0.7071068E+00
  0.0000000E+00  0.0000000E+00 -0.2158452E+01  -0.7071068E+00  0.0000000E+00 -0.7071068E+00
 -0.1079226E+01 -0.1079226E+01 -0.1079226E+01  -0.7071068E+00  0.0000000E+00 -0.7071068E+00
           4
 -0.1079226E+01  0.1079226E+01  0.1079226E+01  -0.7071068E+00  0.7071068E+00  0.0000000E+00
 -0.0000000E+00  0.2158452E+01 -0.0000000E+00  -0.7071068E+00  0.7071068E+00  0.0000000E+00
 -0.1079226E+01  0.1079226E+01 -0.1079226E+01  -0.7071068E+00  0.7071068E+00  0.0000000E+00
 -0.2158452E+01 -0.0000000E+00 -0.0000000E+00  -0.7071068E+00  0.7071068E+00  0.0000000E+00
           4
 -0.0000000E+00 -0.0000000E+00  0.2158452E+01   0.0000000E+00 -0.7071068E+00  0.7071068E+00
 -0.1079226E+01 -0.1079226E+01  0.1079226E+01   0.0000000E+00 -0.7071068E+00  0.7071068E+00
  0.0000000E+00 -0.2158452E+01  0.0000000E+00   0.0000000E+00 -0.7071068E+00  0.7071068E+00
  0.1079226E+01 -0.1079226E+01  0.1079226E+01   0.0000000E+00 -0.7071068E+00  0.7071068E+00
           4
 -0.1079226E+01 -0.1079226E+01 -0.1079226E+01  -0.0000000E+00 -0.7071068E+00 -0.7071068E+00
  0.0000000E+00  0.0000000E+00 -0.2158452E+01  -0.0000000E+00 -0.7071068E+00 -0.7071068E+00
  0.1079226E+01 -0.1079226E+01 -0.1079226E+01  -0.0000000E+00 -0.7071068E+00 -0.7071068E+00
  0.0000000E+00 -0.2158452E+01  0.0000000E+00  -0.0000000E+00 -0.7071068E+00 -0.7071068E+00
           4
  0.0000000E+00 -0.2158452E+01  0.0000000E+00   0.7071068E+00 -0.7071068E+00 -0.0000000E+00
  0.1079226E+01 -0.1079226E+01 -0.1079226E+01   0.7071068E+00 -0.7071068E+00 -0.0000000E+00
  0.2158452E+01  0.0000000E+00  0.0000000E+00   0.7071068E+00 -0.7071068E+00 -0.0000000E+00
  0.1079226E+01 -0.1079226E+01  0.1079226E+01   0.7071068E+00 -0.7071068E+00 -0.0000000E+00
           4
 -0.0000000E+00 -0.0000000E+00  0.2158452E+01   0.0000000E+00  0.7071068E+00  0.7071068E+00
  0.1079226E+01  0.1079226E+01  0.1079226E+01   0.0000000E+00  0.7071068E+00  0.7071068E+00
 -0.0000000E+00  0.2158452E+01 -0.0000000E+00   0.0000000E+00  0.7071068E+00  0.7071068E+00
 -0.1079226E+01  0.1079226E+01  0.1079226E+01   0.0000000E+00  0.7071068E+00  0.7071068E+00
           4
  0.1079226E+01 -0.1079226E+01  0.1079226E+01   0.7071068E+00 -0.0000000E+00  0.7071068E+00
  0.2158452E+01 -0.0000000E+00 -0.0000000E+00   0.7071068E+00 -0.0000000E+00  0.7071068E+00
  0.1079226E+01  0.1079226E+01  0.1079226E+01   0.7071068E+00 -0.0000000E+00  0.7071068E+00
 -0.0000000E+00 -0.0000000E+00  0.2158452E+01   0.7071068E+00 -0.0000000E+00  0.7071068E+00
           4
  0.1079226E+01  0.1079226E+01 -0.1079226E+01  -0.0000000E+00  0.7071068E+00 -0.7071068E+00
  0.0000000E+00  0.0000000E+00 -0.2158452E+01  -0.0000000E+00  0.7071068E+00 -0.7071068E+00
 -0.1079226E+01  0.1079226E+01 -0.1079226E+01  -0.0000000E+00  0.7071068E+00 -0.7071068E+00
  0.0000000E+00  0.2158452E+01  0.0000000E+00  -0.0000000E+00  0.7071068E+00 -0.7071068E+00
           4
  0.2158452E+01  0.0000000E+00  0.0000000E+00   0.7071068E+00  0.0000000E+00 -0.7071068E+00
  0.1079226E+01 -0.1079226E+01 -0.1079226E+01   0.7071068E+00  0.0000000E+00 -0.7071068E+00
  0.0000000E+00  0.0000000E+00 -0.2158452E+01   0.7071068E+00  0.0000000E+00 -0.7071068E+00
  0.1079226E+01  0.1079226E+01 -0.1079226E+01   0.7071068E+00  0.0000000E+00 -0.7071068E+00
           4
  0.2158452E+01  0.0000000E+00  0.0000000E+00   0.7071068E+00  0.7071068E+00 -0.0000000E+00
  0.1079226E+01  0.1079226E+01 -0.1079226E+01   0.7071068E+00  0.7071068E+00 -0.0000000E+00
  0.0000000E+00  0.2158452E+01  0.0000000E+00   0.7071068E+00  0.7071068E+00 -0.0000000E+00
  0.1079226E+01  0.1079226E+01  0.1079226E+01   0.7071068E+00  0.7071068E+00 -0.0000000E+00
 WIGNER-SEITZ-PRIMCELL_END
 WIGNER-SEITZ-CONVCELL
           4
 -0.2158452E+01 -0.2158452E+01  0.2158452E+01  -0.1000000E+01  0.0000000E+00  0.0000000E+00
 -0.2158452E+01  0.2158452E+01  0.2158452E+01  -0.1000000E+01  0.0000000E+00  0.0000000E+00
 -0.2158452E+01  0.2158452E+01 -0.2158452E+01  -0.1000000E+01  0.0000000E+00  0.0000000E+00
 -0.2158452E+01 -0.2158452E+01 -0.2158452E+01  -0.1000000E+01  0.0000000E+00  0.0000000E+00
           4
 -0.2158452E+01 -0.2158452E+01 -0.2158452E+01  -0.0000000E+00 -0.1000000E+01 -0.0000000E+00
  0.2158452E+01 -0.2158452E+01 -0.2158452E+01  -0.0000000E+00 -0.1000000E+01 -0.0000000E+00
  0.2158452E+01 -0.2158452E+01  0.2158452E+01  -0.0000000E+00 -0.1000000E+01 -0.0000000E+00
 -0.2158452E+01 -0.2158452E+01  0.2158452E+01  -0.0000000E+00 -0.1000000E+01 -0.0000000E+00
           4
 -0.2158452E+01  0.2158452E+01 -0.2158452E+01   0.0000000E+00  0.0000000E+00 -0.1000000E+01
  0.2158452E+01  0.2158452E+01 -0.2158452E+01   0.0000000E+00  0.0000000E+00 -0.1000000E+01
  0.2158452E+01 -0.2158452E+01 -0.2158452E+01   0.0000000E+00  0.0000000E+00 -0.1000000E+01
 -0.2158452E+01 -0.2158452E+01 -0.2158452E+01   0.0000000E+00  0.0000000E+00 -0.1000000E+01
           4
 -0.2158452E+01 -0.2158452E+01  0.2158452E+01  -0.0000000E+00 -0.0000000E+00  0.1000000E+01
  0.2158452E+01 -0.2158452E+01  0.2158452E+01  -0.0000000E+00 -0.0000000E+00  0.1000000E+01
  0.2158452E+01  0.2158452E+01  0.2158452E+01  -0.0000000E+00 -0.0000000E+00  0.1000000E+01
 -0.2158452E+01  0.2158452E+01  0.2158452E+01  -0.0000000E+00 -0.0000000E+00  0.1000000E+01
           4
 -0.2158452E+01  0.2158452E+01  0.2158452E+01   0.0000000E+00  0.1000000E+01  0.0000000E+00
  0.2158452E+01  0.2158452E+01  0.2158452E+01   0.0000000E+00  0.1000000E+01  0.0000000E+00
  0.2158452E+01  0.2158452E+01 -0.2158452E+01   0.0000000E+00  0.1000000E+01  0.0000000E+00
 -0.2158452E+01  0.2158452E+01 -0.2158452E+01   0.0000000E+00  0.1000000E+01  0.0000000E+00
           4
  0.2158452E+01 -0.2158452E+01 -0.2158452E+01   0.1000000E+01 -0.0000000E+00 -0.0000000E+00
  0.2158452E+01  0.2158452E+01 -0.2158452E+01   0.1000000E+01 -0.0000000E+00 -0.0000000E+00
  0.2158452E+01  0.2158452E+01  0.2158452E+01   0.1000000E+01 -0.0000000E+00 -0.0000000E+00
  0.2158452E+01 -0.2158452E+01  0.2158452E+01   0.1000000E+01 -0.0000000E+00 -0.0000000E+00
 WIGNER-SEITZ-CONVCELL_END
 BRILLOUIN-ZONE-PRIMCELL
           6
 -0.1158237E+00 -0.2316475E+00 -0.1744447E-16  -0.5773503E+00 -0.5773503E+00 -0.5773503E+00
 -0.2316475E+00 -0.1158237E+00 -0.0000000E+00  -0.5773503E+00 -0.5773503E+00 -0.5773503E+00
 -0.2316475E+00  0.0000000E+00 -0.1158237E+00  -0.5773503E+00 -0.5773503E+00 -0.5773503E+00
 -0.1158237E+00 -0.0000000E+00 -0.2316475E+00  -0.5773503E+00 -0.5773503E+00 -0.5773503E+00
 -0.1744447E-16 -0.1158237E+00 -0.2316475E+00  -0.5773503E+00 -0.5773503E+00 -0.5773503E+00
  0.1744447E-16 -0.2316475E+00 -0.1158237E+00  -0.5773503E+00 -0.5773503E+00 -0.5773503E+00
           4
 -0.2316475E+00  0.1158237E+00 -0.0000000E+00  -0.1000000E+01  0.0000000E+00 -0.0000000E+00
 -0.2316475E+00  0.0000000E+00 -0.1158237E+00  -0.1000000E+01  0.0000000E+00 -0.0000000E+00
 -0.2316475E+00 -0.1158237E+00 -0.0000000E+00  -0.1000000E+01  0.0000000E+00 -0.0000000E+00
 -0.2316475E+00  0.1744447E-16  0.1158237E+00  -0.1000000E+01  0.0000000E+00 -0.0000000E+00
           6
  0.0000000E+00 -0.1158237E+00  0.2316475E+00  -0.5773503E+00 -0.5773503E+00  0.5773503E+00
 -0.1158237E+00 -0.0000000E+00  0.2316475E+00  -0.5773503E+00 -0.5773503E+00  0.5773503E+00
 -0.2316475E+00  0.1744447E-16  0.1158237E+00  -0.5773503E+00 -0.5773503E+00  0.5773503E+00
 -0.2316475E+00 -0.1158237E+00 -0.0000000E+00  -0.5773503E+00 -0.5773503E+00  0.5773503E+00
 -0.1158237E+00 -0.2316475E+00 -0.1744447E-16  -0.5773503E+00 -0.5773503E+00  0.5773503E+00
 -0.0000000E+00 -0.2316475E+00  0.1158237E+00  -0.5773503E+00 -0.5773503E+00  0.5773503E+00
           6
 -0.0000000E+00  0.2316475E+00 -0.1158237E+00  -0.5773503E+00  0.5773503E+00 -0.5773503E+00
  0.1744447E-16  0.1158237E+00 -0.2316475E+00  -0.5773503E+00  0.5773503E+00 -0.5773503E+00
 -0.1158237E+00 -0.0000000E+00 -0.2316475E+00  -0.5773503E+00  0.5773503E+00 -0.5773503E+00
 -0.2316475E+00  0.0000000E+00 -0.1158237E+00  -0.5773503E+00  0.5773503E+00 -0.5773503E+00
 -0.2316475E+00  0.1158237E+00 -0.0000000E+00  -0.5773503E+00  0.5773503E+00 -0.5773503E+00
 -0.1158237E+00  0.2316475E+00  0.1744447E-16  -0.5773503E+00  0.5773503E+00 -0.5773503E+00
           4
 -0.0000000E+00 -0.2316475E+00  0.1158237E+00   0.0000000E+00 -0.1000000E+01 -0.1293109E-15
 -0.1158237E+00 -0.2316475E+00 -0.1744447E-16   0.0000000E+00 -0.1000000E+01 -0.1293109E-15
  0.1744447E-16 -0.2316475E+00 -0.1158237E+00   0.0000000E+00 -0.1000000E+01 -0.1293109E-15
  0.1158237E+00 -0.2316475E+00  0.0000000E+00   0.0000000E+00 -0.1000000E+01 -0.1293109E-15
           6
  0.2316475E+00 -0.1158237E+00 -0.1744447E-16   0.5773503E+00 -0.5773503E+00 -0.5773503E+00
  0.1158237E+00 -0.2316475E+00  0.0000000E+00   0.5773503E+00 -0.5773503E+00 -0.5773503E+00
  0.1744447E-16 -0.2316475E+00 -0.1158237E+00   0.5773503E+00 -0.5773503E+00 -0.5773503E+00
 -0.1744447E-16 -0.1158237E+00 -0.2316475E+00   0.5773503E+00 -0.5773503E+00 -0.5773503E+00
  0.1158237E+00 -0.1744447E-16 -0.2316475E+00   0.5773503E+00 -0.5773503E+00 -0.5773503E+00
  0.2316475E+00  0.1744447E-16 -0.1158237E+00   0.5773503E+00 -0.5773503E+00 -0.5773503E+00
           4
 -0.1158237E+00 -0.0000000E+00 -0.2316475E+00   0.1293109E-15  0.0000000E+00 -0.1000000E+01
  0.1744447E-16  0.1158237E+00 -0.2316475E+00   0.1293109E-15  0.0000000E+00 -0.1000000E+01
  0.1158237E+00 -0.1744447E-16 -0.2316475E+00   0.1293109E-15  0.0000000E+00 -0.1000000E+01
 -0.1744447E-16 -0.1158237E+00 -0.2316475E+00   0.1293109E-15  0.0000000E+00 -0.1000000E+01
           6
  0.1744447E-16  0.2316475E+00  0.1158237E+00  -0.5773503E+00  0.5773503E+00  0.5773503E+00
 -0.1158237E+00  0.2316475E+00  0.1744447E-16  -0.5773503E+00  0.5773503E+00  0.5773503E+00
 -0.2316475E+00  0.1158237E+00 -0.0000000E+00  -0.5773503E+00  0.5773503E+00  0.5773503E+00
 -0.2316475E+00  0.1744447E-16  0.1158237E+00  -0.5773503E+00  0.5773503E+00  0.5773503E+00
 -0.1158237E+00 -0.0000000E+00  0.2316475E+00  -0.5773503E+00  0.5773503E+00  0.5773503E+00
 -0.1744447E-16  0.1158237E+00  0.2316475E+00  -0.5773503E+00  0.5773503E+00  0.5773503E+00
           6
  0.1158237E+00 -0.0000000E+00  0.2316475E+00   0.5773503E+00 -0.5773503E+00  0.5773503E+00
  0.0000000E+00 -0.1158237E+00  0.2316475E+00   0.5773503E+00 -0.5773503E+00  0.5773503E+00
 -0.0000000E+00 -0.2316475E+00  0.1158237E+00   0.5773503E+00 -0.5773503E+00  0.5773503E+00
  0.1158237E+00 -0.2316475E+00  0.0000000E+00   0.5773503E+00 -0.5773503E+00  0.5773503E+00
  0.2316475E+00 -0.1158237E+00 -0.1744447E-16   0.5773503E+00 -0.5773503E+00  0.5773503E+00
  0.2316475E+00  0.0000000E+00  0.1158237E+00   0.5773503E+00 -0.5773503E+00  0.5773503E+00
           4
  0.0000000E+00 -0.1158237E+00  0.2316475E+00  -0.0000000E+00 -0.0000000E+00  0.1000000E+01
  0.1158237E+00 -0.0000000E+00  0.2316475E+00  -0.0000000E+00 -0.0000000E+00  0.1000000E+01
 -0.1744447E-16  0.1158237E+00  0.2316475E+00  -0.0000000E+00 -0.0000000E+00  0.1000000E+01
 -0.1158237E+00 -0.0000000E+00  0.2316475E+00  -0.0000000E+00 -0.0000000E+00  0.1000000E+01
           6
  0.2316475E+00  0.1744447E-16 -0.1158237E+00   0.5773503E+00  0.5773503E+00 -0.5773503E+00
  0.1158237E+00 -0.1744447E-16 -0.2316475E+00   0.5773503E+00  0.5773503E+00 -0.5773503E+00
  0.1744447E-16  0.1158237E+00 -0.2316475E+00   0.5773503E+00  0.5773503E+00 -0.5773503E+00
 -0.0000000E+00  0.2316475E+00 -0.1158237E+00   0.5773503E+00  0.5773503E+00 -0.5773503E+00
  0.1158237E+00  0.2316475E+00 -0.1744447E-16   0.5773503E+00  0.5773503E+00 -0.5773503E+00
  0.2316475E+00  0.1158237E+00 -0.0000000E+00   0.5773503E+00  0.5773503E+00 -0.5773503E+00
           4
  0.1158237E+00  0.2316475E+00 -0.1744447E-16  -0.0000000E+00  0.1000000E+01 -0.1293109E-15
 -0.0000000E+00  0.2316475E+00 -0.1158237E+00  -0.0000000E+00  0.1000000E+01 -0.1293109E-15
 -0.1158237E+00  0.2316475E+00  0.1744447E-16  -0.0000000E+00  0.1000000E+01 -0.1293109E-15
  0.1744447E-16  0.2316475E+00  0.1158237E+00  -0.0000000E+00  0.1000000E+01 -0.1293109E-15
           4
  0.2316475E+00  0.0000000E+00  0.1158237E+00   0.1000000E+01 -0.0000000E+00  0.0000000E+00
  0.2316475E+00 -0.1158237E+00 -0.1744447E-16   0.1000000E+01 -0.0000000E+00  0.0000000E+00
  0.2316475E+00  0.1744447E-16 -0.1158237E+00   0.1000000E+01 -0.0000000E+00  0.0000000E+00
  0.2316475E+00  0.1158237E+00 -0.0000000E+00   0.1000000E+01 -0.0000000E+00  0.0000000E+00
           6
  0.2316475E+00  0.0000000E+00  0.1158237E+00   0.5773503E+00  0.5773503E+00  0.5773503E+00
  0.2316475E+00  0.1158237E+00 -0.0000000E+00   0.5773503E+00  0.5773503E+00  0.5773503E+00
  0.1158237E+00  0.2316475E+00 -0.1744447E-16   0.5773503E+00  0.5773503E+00  0.5773503E+00
  0.1744447E-16  0.2316475E+00  0.1158237E+00   0.5773503E+00  0.5773503E+00  0.5773503E+00
 -0.1744447E-16  0.1158237E+00  0.2316475E+00   0.5773503E+00  0.5773503E+00  0.5773503E+00
  0.1158237E+00 -0.0000000E+00  0.2316475E+00   0.5773503E+00  0.5773503E+00  0.5773503E+00
 BRILLOUIN-ZONE-PRIMCELL_END
 BRILLOUIN-ZONE-CONVCELL
           4
 -0.1158237E+00 -0.1158237E+00  0.1158237E+00  -0.1000000E+01  0.0000000E+00  0.0000000E+00
 -0.1158237E+00  0.1158237E+00  0.1158237E+00  -0.1000000E+01  0.0000000E+00  0.0000000E+00
 -0.1158237E+00  0.1158237E+00 -0.1158237E+00  -0.1000000E+01  0.0000000E+00  0.0000000E+00
 -0.1158237E+00 -0.1158237E+00 -0.1158237E+00  -0.1000000E+01  0.0000000E+00  0.0000000E+00
           4
 -0.1158237E+00 -0.1158237E+00 -0.1158237E+00  -0.0000000E+00 -0.1000000E+01 -0.0000000E+00
  0.1158237E+00 -0.1158237E+00 -0.1158237E+00  -0.0000000E+00 -0.1000000E+01 -0.0000000E+00
  0.1158237E+00 -0.1158237E+00  0.1158237E+00  -0.0000000E+00 -0.1000000E+01 -0.0000000E+00
 -0.1158237E+00 -0.1158237E+00  0.1158237E+00  -0.0000000E+00 -0.1000000E+01 -0.0000000E+00
           4
 -0.1158237E+00  0.1158237E+00 -0.1158237E+00   0.0000000E+00  0.0000000E+00 -0.1000000E+01
  0.1158237E+00  0.1158237E+00 -0.1158237E+00   0.0000000E+00  0.0000000E+00 -0.1000000E+01
  0.1158237E+00 -0.1158237E+00 -0.1158237E+00   0.0000000E+00  0.0000000E+00 -0.1000000E+01
 -0.1158237E+00 -0.1158237E+00 -0.1158237E+00   0.0000000E+00  0.0000000E+00 -0.1000000E+01
           4
 -0.1158237E+00 -0.1158237E+00  0.1158237E+00  -0.0000000E+00 -0.0000000E+00  0.1000000E+01
  0.1158237E+00 -0.1158237E+00  0.1158237E+00  -0.0000000E+00 -0.0000000E+00  0.1000000E+01
  0.1158237E+00  0.1158237E+00  0.1158237E+00  -0.0000000E+00 -0.0000000E+00  0.1000000E+01
 -0.1158237E+00  0.1158237E+00  0.1158237E+00  -0.0000000E+00 -0.0000000E+00  0.1000000E+01
           4
 -0.1158237E+00  0.1158237E+00  0.1158237E+00   0.0000000E+00  0.1000000E+01  0.0000000E+00
  0.1158237E+00  0.1158237E+00  0.1158237E+00   0.0000000E+00  0.1000000E+01  0.0000000E+00
  0.1158237E+00  0.1158237E+00 -0.1158237E+00   0.0000000E+00  0.1000000E+01  0.0000000E+00
 -0.1158237E+00  0.1158237E+00 -0.1158237E+00   0.0000000E+00  0.1000000E+01  0.0000000E+00
           4
  0.1158237E+00 -0.1158237E+00 -0.1158237E+00   0.1000000E+01 -0.0000000E+00 -0.0000000E+00
  0.1158237E+00  0.1158237E+00 -0.1158237E+00   0.1000000E+01 -0.0000000E+00 -0.0000000E+00
  0.1158237E+00  0.1158237E+00  0.1158237E+00   0.1000000E+01 -0.0000000E+00 -0.0000000E+00
  0.1158237E+00 -0.1158237E+00  0.1158237E+00   0.1000000E+01 -0.0000000E+00 -0.0000000E+00
 BRILLOUIN-ZONE-CONVCELL_END
 ATOMS
   26    0.0000000000    0.0000000000    0.0000000000
   26    0.0000000000    2.1584523922    2.1584523922
   26    2.1584523922    0.0000000000    2.1584523922
   26    2.1584523922    2.1584523922    0.0000000000
    8    0.0000000000    0.0000000000    2.1584523922
    8    0.0000000000    2.1584523922   -0.0000000000
    8    2.1584523922    0.0000000000   -0.0000000000
    8    2.1584523922    2.1584523922    2.1584523922
   26    0.0000000000    0.0000000000    4.3169047845
   26    2.1584523922    2.1584523922    4.3169047845
    8    0.0000000000    2.1584523922    4.3169047845
    8    2.1584523922    0.0000000000    4.3169047845
   26    0.0000000000    4.3169047845    0.0000000000
   26    2.1584523922    4.3169047845    2.1584523922
    8    0.0000000000    4.3169047845    2.1584523922
    8    2.1584523922    4.3169047845   -0.0000000000
   26    0.0000000000    4.3169047845    4.3169047845
    8    2.1584523922    4.3169047845    4.3169047845
   26    4.3169047845    0.0000000000    0.0000000000
   26    4.3169047845    2.1584523922    2.1584523922
    8    4.3169047845    0.0000000000    2.1584523922
    8    4.3169047845    2.1584523922   -0.0000000000
   26    4.3169047845    0.0000000000    4.3169047845
    8    4.3169047845    2.1584523922    4.3169047845
   26    4.3169047845    4.3169047845    0.0000000000
    8    4.3169047845    4.3169047845    2.1584523922
   26    4.3169047845    4.3169047845    4.3169047845
 FRAMES
1      0.0000000000    0.0000000000    0.0000000000      4.3169047845    0.0000000000    0.0000000000
1      0.0000000000    0.0000000000    0.0000000000      0.0000000000    4.3169047845    0.0000000000
1      0.0000000000    0.0000000000    0.0000000000      0.0000000000    0.0000000000    4.3169047845
1      0.0000000000    0.0000000000    4.3169047845      4.3169047845    0.0000000000    4.3169047845
1      0.0000000000    0.0000000000    4.3169047845      0.0000000000    4.3169047845    4.3169047845
1      0.0000000000    4.3169047845    0.0000000000      4.3169047845    4.3169047845    0.0000000000
1      0.0000000000    4.3169047845    0.0000000000      0.0000000000    4.3169047845    4.3169047845
1      0.0000000000    4.3169047845    4.3169047845      4.3169047845    4.3169047845    4.3169047845
1      4.3169047845    0.0000000000    0.0000000000      4.3169047845    4.3169047845    0.0000000000
1      4.3169047845    0.0000000000    0.0000000000      4.3169047845    0.0000000000    4.3169047845
1      4.3169047845    0.0000000000    4.3169047845      4.3169047845    4.3169047845    4.3169047845
1      4.3169047845    4.3169047845    0.0000000000      4.3169047845    4.3169047845    4.3169047845

